<?xml version="1.0" encoding="UTF-8"?>

<!-- generated on 2023-01-05 21:06:44 by Eclipse SUMO netedit Version v1_14_1+1789-6cfa3a18e2c
-->

<routes xmlns:xsi="http://www.w3.org/2001/XMLSchema-instance" xsi:noNamespaceSchemaLocation="http://sumo.dlr.de/xsd/routes_file.xsd">
    <!-- VTypes -->
    <!-- Vehicles, persons and containers (sorted by depart) -->
    <flow id="f_0" begin="0.00" from="E7" to="-E5" end="120.00" probability="0.05"/>
    <flow id="f_1" begin="0.00" from="E7" to="-E4" end="120.00" probability="0.05"/>
    <flow id="f_10" begin="0.00" from="E5" to="-E6" end="120.00" probability="0.05"/>
    <flow id="f_11" begin="0.00" from="E5" to="-E4" end="120.00" probability="0.05"/>
    <flow id="f_2" begin="0.00" from="E7" to="-E6" end="120.00" probability="0.05"/>
    <flow id="f_3" begin="0.00" from="E6" to="-E7" end="120.00" probability="0.05"/>
    <flow id="f_4" begin="0.00" from="E6" to="-E4" end="120.00" probability="0.05"/>
    <flow id="f_5" begin="0.00" from="E6" to="-E5" end="120.00" probability="0.05"/>
    <flow id="f_6" begin="0.00" from="E4" to="-E5" end="120.00" probability="0.05"/>
    <flow id="f_7" begin="0.00" from="E4" to="-E7" end="120.00" probability="0.05"/>
    <flow id="f_8" begin="0.00" from="E4" to="-E6" end="120.00" probability="0.05"/>
    <flow id="f_9" begin="0.00" from="E5" to="-E7" end="120.00" probability="0.05"/>
    
    <personFlow id="pf_0" begin="0.00" end="120.00" period="8">
        <walk from="E6" to="-E5"/>
    </personFlow>
</routes>
