<?xml version="1.0" encoding="UTF-8"?>

<!-- generated on 2023-01-04 02:32:54 by Eclipse SUMO netedit Version 1.15.0
<configuration xmlns:xsi="http://www.w3.org/2001/XMLSchema-instance" xsi:noNamespaceSchemaLocation="http://sumo.dlr.de/xsd/netconvertConfiguration.xsd">

    <input>
        <sumo-net-file value="D:\Work\suno_network\map.net.xml"/>
    </input>

    <output>
        <output-file value="D:\Work\suno_network\map.net.xml"/>
    </output>

    <processing>
        <geometry.min-radius.fix.railways value="false"/>
        <geometry.max-grade.fix value="false"/>
        <offset.disable-normalization value="true"/>
        <lefthand value="0"/>
    </processing>

    <junctions>
        <no-internal-links value="false"/>
        <no-turnarounds value="true"/>
        <junctions.corner-detail value="5"/>
        <junctions.limit-turn-speed value="5.50"/>
        <rectangular-lane-cut value="0"/>
    </junctions>

    <pedestrian>
        <walkingareas value="0"/>
    </pedestrian>

</configuration>
-->

<net version="1.9" junctionCornerDetail="5" limitTurnSpeed="5.50" xmlns:xsi="http://www.w3.org/2001/XMLSchema-instance" xsi:noNamespaceSchemaLocation="http://sumo.dlr.de/xsd/net_file.xsd">

    <location netOffset="-587553.36,-4517914.65" convBoundary="195.87,165.06,258.02,236.55" origBoundary="-73.961934,40.807561,-73.957617,40.810567" projParameter="+proj=utm +zone=18 +ellps=WGS84 +datum=WGS84 +units=m +no_defs"/>

    <type id="highway.bridleway" priority="1" numLanes="1" speed="2.78" allow="pedestrian" oneway="1" width="2.00"/>
    <type id="highway.bus_guideway" priority="1" numLanes="1" speed="27.78" allow="bus" oneway="1"/>
    <type id="highway.cycleway" priority="1" numLanes="1" speed="5.56" allow="bicycle" oneway="0" width="1.00"/>
    <type id="highway.footway" priority="1" numLanes="1" speed="2.78" allow="pedestrian" oneway="1" width="2.00"/>
    <type id="highway.ford" priority="1" numLanes="1" speed="2.78" allow="army" oneway="0"/>
    <type id="highway.living_street" priority="2" numLanes="1" speed="2.78" disallow="tram rail_urban rail rail_electric rail_fast ship" oneway="0"/>
    <type id="highway.motorway" priority="14" numLanes="2" speed="39.44" allow="private emergency authority army vip passenger hov taxi bus coach delivery truck trailer motorcycle evehicle custom1 custom2" oneway="1"/>
    <type id="highway.motorway_link" priority="9" numLanes="1" speed="22.22" allow="private emergency authority army vip passenger hov taxi bus coach delivery truck trailer motorcycle evehicle custom1 custom2" oneway="1"/>
    <type id="highway.path" priority="1" numLanes="1" speed="5.56" allow="pedestrian bicycle" oneway="0" width="2.00"/>
    <type id="highway.pedestrian" priority="1" numLanes="1" speed="2.78" allow="pedestrian" oneway="1" width="2.00"/>
    <type id="highway.primary" priority="12" numLanes="2" speed="27.78" disallow="tram rail_urban rail rail_electric rail_fast ship" oneway="0"/>
    <type id="highway.primary_link" priority="7" numLanes="1" speed="22.22" disallow="tram rail_urban rail rail_electric rail_fast ship" oneway="0"/>
    <type id="highway.raceway" priority="15" numLanes="2" speed="83.33" allow="vip" oneway="0"/>
    <type id="highway.residential" priority="3" numLanes="1" speed="13.89" disallow="tram rail_urban rail rail_electric rail_fast ship" oneway="0"/>
    <type id="highway.secondary" priority="11" numLanes="1" speed="27.78" disallow="tram rail_urban rail rail_electric rail_fast ship" oneway="0"/>
    <type id="highway.secondary_link" priority="6" numLanes="1" speed="22.22" disallow="tram rail_urban rail rail_electric rail_fast ship" oneway="0"/>
    <type id="highway.service" priority="1" numLanes="1" speed="5.56" allow="pedestrian delivery bicycle" oneway="0"/>
    <type id="highway.stairs" priority="1" numLanes="1" speed="1.39" allow="pedestrian" oneway="1" width="2.00"/>
    <type id="highway.step" priority="1" numLanes="1" speed="1.39" allow="pedestrian" oneway="1" width="2.00"/>
    <type id="highway.steps" priority="1" numLanes="1" speed="1.39" allow="pedestrian" oneway="1" width="2.00"/>
    <type id="highway.tertiary" priority="10" numLanes="1" speed="22.22" disallow="tram rail_urban rail rail_electric rail_fast ship" oneway="0"/>
    <type id="highway.tertiary_link" priority="5" numLanes="1" speed="22.22" disallow="tram rail_urban rail rail_electric rail_fast ship" oneway="0"/>
    <type id="highway.track" priority="1" numLanes="1" speed="5.56" allow="pedestrian motorcycle moped bicycle" oneway="0"/>
    <type id="highway.trunk" priority="13" numLanes="2" speed="27.78" disallow="pedestrian bicycle tram rail_urban rail rail_electric rail_fast ship" oneway="0"/>
    <type id="highway.trunk_link" priority="8" numLanes="1" speed="22.22" disallow="pedestrian bicycle tram rail_urban rail rail_electric rail_fast ship" oneway="0"/>
    <type id="highway.unclassified" priority="4" numLanes="1" speed="13.89" disallow="tram rail_urban rail rail_electric rail_fast ship" oneway="0"/>
    <type id="highway.unsurfaced" priority="1" numLanes="1" speed="8.33" disallow="tram rail_urban rail rail_electric rail_fast ship" oneway="0"/>
    <type id="railway.highspeed" priority="21" numLanes="1" speed="69.44" allow="rail_fast" oneway="1"/>
    <type id="railway.light_rail" priority="19" numLanes="1" speed="27.78" allow="rail_urban" oneway="1"/>
    <type id="railway.preserved" priority="16" numLanes="1" speed="27.78" allow="rail" oneway="1"/>
    <type id="railway.rail" priority="20" numLanes="1" speed="44.44" allow="rail" oneway="1"/>
    <type id="railway.subway" priority="18" numLanes="1" speed="27.78" allow="rail_urban" oneway="1"/>
    <type id="railway.tram" priority="17" numLanes="1" speed="13.89" allow="tram" oneway="1"/>

    <edge id=":1504153626_0" function="internal">
        <lane id=":1504153626_0_0" index="0" disallow="pedestrian" speed="6.89" length="5.99" shape="233.29,206.90 231.62,204.65 229.64,203.46 228.77,203.42"/>
    </edge>
    <edge id=":1504153626_1" function="internal">
        <lane id=":1504153626_1_0" index="0" disallow="pedestrian" speed="13.89" length="15.85" shape="233.29,206.90 225.78,192.95"/>
    </edge>
    <edge id=":1504153626_2" function="internal">
        <lane id=":1504153626_2_0" index="0" disallow="pedestrian" speed="8.29" length="4.32" shape="233.29,206.90 231.83,202.95 231.84,202.84"/>
    </edge>
    <edge id=":1504153626_12" function="internal">
        <lane id=":1504153626_12_0" index="0" disallow="pedestrian" speed="6.89" length="4.24" shape="228.77,203.42 227.33,203.34 224.71,204.30"/>
    </edge>
    <edge id=":1504153626_13" function="internal">
        <lane id=":1504153626_13_0" index="0" disallow="pedestrian" speed="8.29" length="11.05" shape="231.84,202.84 231.99,199.48 233.77,196.50 237.17,194.01"/>
    </edge>
    <edge id=":1504153626_3" function="internal">
        <lane id=":1504153626_3_0" index="0" disallow="pedestrian" speed="6.86" length="5.96" shape="238.68,196.83 236.42,198.49 235.24,200.46 235.20,201.32"/>
    </edge>
    <edge id=":1504153626_4" function="internal">
        <lane id=":1504153626_4_0" index="0" disallow="pedestrian" speed="13.89" length="15.84" shape="238.68,196.83 224.71,204.30"/>
    </edge>
    <edge id=":1504153626_5" function="internal">
        <lane id=":1504153626_5_0" index="0" disallow="pedestrian" speed="8.31" length="4.22" shape="238.68,196.83 234.72,198.27"/>
    </edge>
    <edge id=":1504153626_14" function="internal">
        <lane id=":1504153626_14_0" index="0" disallow="pedestrian" speed="6.86" length="4.23" shape="235.20,201.32 235.14,202.76 236.11,205.38"/>
    </edge>
    <edge id=":1504153626_15" function="internal">
        <lane id=":1504153626_15_0" index="0" disallow="pedestrian" speed="8.31" length="11.14" shape="234.72,198.27 231.25,198.11 228.27,196.33 225.78,192.95"/>
    </edge>
    <edge id=":1504153626_6" function="internal">
        <lane id=":1504153626_6_0" index="0" disallow="pedestrian" speed="6.88" length="5.97" shape="228.60,191.44 230.25,193.68 232.23,194.86 233.11,194.90"/>
    </edge>
    <edge id=":1504153626_7" function="internal">
        <lane id=":1504153626_7_0" index="0" disallow="pedestrian" speed="13.89" length="15.83" shape="228.60,191.44 236.11,205.38"/>
    </edge>
    <edge id=":1504153626_8" function="internal">
        <lane id=":1504153626_8_0" index="0" disallow="pedestrian" speed="8.29" length="4.20" shape="228.60,191.44 230.04,195.38"/>
    </edge>
    <edge id=":1504153626_16" function="internal">
        <lane id=":1504153626_16_0" index="0" disallow="pedestrian" speed="6.88" length="4.23" shape="233.11,194.90 234.54,194.97 237.17,194.01"/>
    </edge>
    <edge id=":1504153626_17" function="internal">
        <lane id=":1504153626_17_0" index="0" disallow="pedestrian" speed="8.29" length="11.12" shape="230.04,195.38 229.87,198.84 228.09,201.81 224.71,204.30"/>
    </edge>
    <edge id=":1504153626_9" function="internal">
        <lane id=":1504153626_9_0" index="0" disallow="pedestrian" speed="6.86" length="5.93" shape="223.20,201.48 225.44,199.83 226.62,197.86 226.66,197.01"/>
    </edge>
    <edge id=":1504153626_10" function="internal">
        <lane id=":1504153626_10_0" index="0" disallow="pedestrian" speed="13.89" length="15.84" shape="223.20,201.48 237.17,194.01"/>
    </edge>
    <edge id=":1504153626_11" function="internal">
        <lane id=":1504153626_11_0" index="0" disallow="pedestrian" speed="8.32" length="4.20" shape="223.20,201.48 227.14,200.04"/>
    </edge>
    <edge id=":1504153626_18" function="internal">
        <lane id=":1504153626_18_0" index="0" disallow="pedestrian" speed="6.86" length="4.23" shape="226.66,197.01 226.73,195.56 225.78,192.95"/>
    </edge>
    <edge id=":1504153626_19" function="internal">
        <lane id=":1504153626_19_0" index="0" disallow="pedestrian" speed="8.32" length="11.16" shape="227.14,200.04 230.61,200.21 233.60,201.99 236.11,205.38"/>
    </edge>
    <edge id=":1504153626_c0" function="crossing" crossingEdges="-E5 E5">
        <lane id=":1504153626_c0_0" index="0" allow="pedestrian" speed="1.00" length="6.40" width="4.00" shape="236.56,202.86 230.93,205.91"/>
    </edge>
    <edge id=":1504153626_c1" function="crossing" crossingEdges="-E7 E7">
        <lane id=":1504153626_c1_0" index="0" allow="pedestrian" speed="1.00" length="6.40" width="4.00" shape="234.65,193.54 237.67,199.19"/>
    </edge>
    <edge id=":1504153626_c2" function="crossing" crossingEdges="-E6 E6">
        <lane id=":1504153626_c2_0" index="0" allow="pedestrian" speed="1.00" length="6.40" width="4.00" shape="225.31,195.47 230.96,192.45"/>
    </edge>
    <edge id=":1504153626_c3" function="crossing" crossingEdges="-E4 E4">
        <lane id=":1504153626_c3_0" index="0" allow="pedestrian" speed="1.00" length="6.40" width="4.00" shape="227.23,204.77 224.21,199.12"/>
    </edge>
    <edge id=":1504153626_w0" function="walkingarea">
        <lane id=":1504153626_w0_0" index="0" allow="pedestrian" speed="1.00" length="3.87" width="4.00" shape="225.46,205.71 226.97,208.53 229.07,209.19 231.89,207.67 231.08,206.45 230.17,205.59 229.15,205.09 228.03,204.94 226.80,205.14"/>
    </edge>
    <edge id=":1504153626_w1" function="walkingarea">
        <lane id=":1504153626_w1_0" index="0" allow="pedestrian" speed="1.00" length="3.84" width="4.00" shape="237.52,204.62 240.33,203.09 240.94,201.07 239.43,198.25 238.22,199.04 237.37,199.94 236.87,200.95 236.73,202.07 236.94,203.29"/>
    </edge>
    <edge id=":1504153626_w2" function="walkingarea">
        <lane id=":1504153626_w2_0" index="0" allow="pedestrian" speed="1.00" length="3.85" width="4.00" shape="236.42,192.60 234.91,189.78 232.83,189.17 230.01,190.68 230.81,191.89 231.71,192.74 232.72,193.24 233.85,193.38 235.08,193.17"/>
    </edge>
    <edge id=":1504153626_w3" function="walkingarea">
        <lane id=":1504153626_w3_0" index="0" allow="pedestrian" speed="1.00" length="3.83" width="4.00" shape="224.37,193.70 221.55,195.21 220.93,197.24 222.44,200.07 223.65,199.27 224.50,198.37 225.00,197.37 225.14,196.25 224.93,195.03"/>
    </edge>
    <edge id=":6916346823_w0" function="walkingarea">
        <lane id=":6916346823_w0_0" index="0" allow="pedestrian" speed="1.00" length="9.60" width="3.20" shape="248.36,238.07 245.54,239.60 256.80,233.50 253.98,235.03"/>
    </edge>
    <edge id=":7004347450_w0" function="walkingarea">
        <lane id=":7004347450_w0_0" index="0" allow="pedestrian" speed="1.00" length="9.60" width="3.20" shape="259.53,187.52 261.03,190.35 255.01,179.05 256.51,181.88"/>
    </edge>
    <edge id=":7004347451_w0" function="walkingarea">
        <lane id=":7004347451_w0_0" index="0" allow="pedestrian" speed="1.00" length="9.60" width="3.20" shape="215.49,163.55 218.31,162.04 207.03,168.08 209.85,166.57"/>
    </edge>
    <edge id=":7004347452_w0" function="walkingarea">
        <lane id=":7004347452_w0_0" index="0" allow="pedestrian" speed="1.00" length="9.60" width="3.20" shape="194.36,215.09 192.85,212.27 198.89,223.55 197.38,220.73"/>
    </edge>

    <edge id="-E4" from="1504153626" to="7004347452" priority="-1">
        <lane id="-E4_0" index="0" allow="pedestrian" speed="13.89" length="31.85" shape="226.22,207.12 198.13,222.14"/>
        <lane id="-E4_1" index="1" disallow="pedestrian" speed="13.89" length="31.85" shape="224.71,204.30 196.62,219.32"/>
    </edge>
    <edge id="-E5" from="1504153626" to="6916346823" priority="-1">
        <lane id="-E5_0" index="0" allow="pedestrian" speed="13.89" length="34.58" shape="238.92,203.86 255.39,234.26"/>
        <lane id="-E5_1" index="1" disallow="pedestrian" speed="13.89" length="34.58" shape="236.11,205.38 252.58,235.79"/>
    </edge>
    <edge id="-E6" from="1504153626" to="7004347451" priority="-1">
        <lane id="-E6_0" index="0" allow="pedestrian" speed="13.89" length="30.78" shape="222.96,194.46 208.44,167.32"/>
        <lane id="-E6_1" index="1" disallow="pedestrian" speed="13.89" length="30.78" shape="225.78,192.95 211.26,165.81"/>
    </edge>
    <edge id="-E7" from="1504153626" to="7004347450" priority="-1">
        <lane id="-E7_0" index="0" allow="pedestrian" speed="13.89" length="22.78" shape="235.67,191.19 255.76,180.47"/>
        <lane id="-E7_1" index="1" disallow="pedestrian" speed="13.89" length="22.78" shape="237.17,194.01 257.27,183.29"/>
    </edge>
    <edge id="E4" from="7004347452" to="1504153626" priority="-1">
        <lane id="E4_0" index="0" allow="pedestrian" speed="13.89" length="31.85" shape="193.61,213.68 221.69,198.65"/>
        <lane id="E4_1" index="1" disallow="pedestrian" speed="13.89" length="31.85" shape="195.12,216.50 223.20,201.48"/>
    </edge>
    <edge id="E5" from="6916346823" to="1504153626" priority="-1">
        <lane id="E5_0" index="0" allow="pedestrian" speed="13.89" length="34.58" shape="246.95,238.84 230.48,208.43"/>
        <lane id="E5_1" index="1" disallow="pedestrian" speed="13.89" length="34.58" shape="249.76,237.31 233.29,206.90"/>
    </edge>
    <edge id="E6" from="7004347451" to="1504153626" priority="-1">
        <lane id="E6_0" index="0" allow="pedestrian" speed="13.89" length="30.78" shape="216.90,162.80 231.42,189.93"/>
        <lane id="E6_1" index="1" disallow="pedestrian" speed="13.89" length="30.78" shape="214.08,164.31 228.60,191.44"/>
    </edge>
    <edge id="E7" from="7004347450" to="1504153626" priority="-1">
        <lane id="E7_0" index="0" allow="pedestrian" speed="13.89" length="22.78" shape="260.28,188.93 240.18,199.66"/>
        <lane id="E7_1" index="1" disallow="pedestrian" speed="13.89" length="22.78" shape="258.77,186.11 238.68,196.83"/>
    </edge>

    <tlLogic id="1504153626" type="static" programID="0" offset="0">
        <phase duration="32" state="gGgrrrgGgrrrrGrG"/>
        <phase duration="10" state="gGgrrrgGgrrrrrrr"/>
        <phase duration="3"  state="yyyrrryyyrrrrrrr"/>
        <phase duration="37" state="rrrgGgrrrgGgGrGr"/>
        <phase duration="5"  state="rrrgGgrrrgGgrrrr"/>
        <phase duration="3"  state="rrryyyrrryyyrrrr"/>
    </tlLogic>

    <junction id="1504153626" type="traffic_light" x="230.92" y="199.16" incLanes="E5_0 E5_1 E7_0 E7_1 E6_0 E6_1 E4_0 E4_1 :1504153626_w1_0 :1504153626_w2_0 :1504153626_w3_0 :1504153626_w0_0" intLanes=":1504153626_12_0 :1504153626_1_0 :1504153626_13_0 :1504153626_14_0 :1504153626_4_0 :1504153626_15_0 :1504153626_16_0 :1504153626_7_0 :1504153626_17_0 :1504153626_18_0 :1504153626_10_0 :1504153626_19_0 :1504153626_c0_0 :1504153626_c1_0 :1504153626_c2_0 :1504153626_c3_0" shape="229.07,209.19 240.33,203.09 240.08,202.28 240.12,201.93 240.28,201.61 240.55,201.32 240.94,201.07 234.91,189.78 234.07,190.03 233.71,189.99 233.38,189.83 233.09,189.56 232.83,189.17 221.55,195.21 221.80,196.03 221.75,196.38 221.59,196.70 221.32,196.99 220.93,197.24 226.97,208.53 227.81,208.28 228.17,208.33 228.51,208.50 228.81,208.79">
        <request index="0"  response="1001000000010000" foes="1001000100010000" cont="1"/>
        <request index="1"  response="0101111000110000" foes="0101111100110000" cont="0"/>
        <request index="2"  response="0011110111110000" foes="0011110111110000" cont="1"/>
        <request index="3"  response="0011000000000000" foes="0011100010000000" cont="1"/>
        <request index="4"  response="1010000100000101" foes="1010100110000111" cont="0"/>
        <request index="5"  response="0110011100000100" foes="0110111110000110" cont="1"/>
        <request index="6"  response="0110010000000000" foes="0110010000000100" cont="1"/>
        <request index="7"  response="0101110000111000" foes="0101110000111100" cont="0"/>
        <request index="8"  response="1100110000110011" foes="1100110000110111" cont="1"/>
        <request index="9"  response="1100000000000000" foes="1100000000100010" cont="1"/>
        <request index="10" response="1010000101000100" foes="1010000111100110" cont="0"/>
        <request index="11" response="1001000100111100" foes="1001000110111110" cont="1"/>
        <request index="12" response="0000000000000000" foes="0000100010001111" cont="0"/>
        <request index="13" response="0000000000000000" foes="0000010001111100" cont="0"/>
        <request index="14" response="0000000000000000" foes="0000001111100010" cont="0"/>
        <request index="15" response="0000000000000000" foes="0000111100010001" cont="0"/>
    </junction>
    <junction id="6916346823" type="dead_end" x="251.17" y="236.55" incLanes="-E5_0 -E5_1" intLanes="" shape="251.17,236.55 256.80,233.50 251.17,236.55"/>
    <junction id="7004347450" type="dead_end" x="258.02" y="184.70" incLanes="-E7_0 -E7_1" intLanes="" shape="258.02,184.70 255.01,179.05 258.02,184.70"/>
    <junction id="7004347451" type="dead_end" x="212.67" y="165.06" incLanes="-E6_0 -E6_1" intLanes="" shape="212.67,165.06 207.03,168.08 212.67,165.06"/>
    <junction id="7004347452" type="dead_end" x="195.87" y="217.91" incLanes="-E4_0 -E4_1" intLanes="" shape="195.87,217.91 198.89,223.55 195.87,217.91"/>

    <junction id=":1504153626_12_0" type="internal" x="228.77" y="203.42" incLanes=":1504153626_0_0" intLanes=":1504153626_4_0 :1504153626_8_0 :1504153626_c0_0 :1504153626_c3_0"/>
    <junction id=":1504153626_13_0" type="internal" x="231.84" y="202.84" incLanes=":1504153626_2_0 E6_1" intLanes=":1504153626_4_0 :1504153626_5_0 :1504153626_6_0 :1504153626_7_0 :1504153626_10_0 :1504153626_11_0 :1504153626_c0_0 :1504153626_c1_0"/>
    <junction id=":1504153626_14_0" type="internal" x="235.20" y="201.32" incLanes=":1504153626_3_0" intLanes=":1504153626_7_0 :1504153626_11_0 :1504153626_c0_0 :1504153626_c1_0"/>
    <junction id=":1504153626_15_0" type="internal" x="234.72" y="198.27" incLanes=":1504153626_5_0 E4_1" intLanes=":1504153626_1_0 :1504153626_2_0 :1504153626_7_0 :1504153626_8_0 :1504153626_9_0 :1504153626_10_0 :1504153626_c1_0 :1504153626_c2_0"/>
    <junction id=":1504153626_16_0" type="internal" x="233.11" y="194.90" incLanes=":1504153626_6_0" intLanes=":1504153626_2_0 :1504153626_10_0 :1504153626_c1_0 :1504153626_c2_0"/>
    <junction id=":1504153626_17_0" type="internal" x="230.04" y="195.38" incLanes=":1504153626_8_0 E5_1" intLanes=":1504153626_0_0 :1504153626_1_0 :1504153626_4_0 :1504153626_5_0 :1504153626_10_0 :1504153626_11_0 :1504153626_c2_0 :1504153626_c3_0"/>
    <junction id=":1504153626_18_0" type="internal" x="226.66" y="197.01" incLanes=":1504153626_9_0" intLanes=":1504153626_1_0 :1504153626_5_0 :1504153626_c2_0 :1504153626_c3_0"/>
    <junction id=":1504153626_19_0" type="internal" x="227.14" y="200.04" incLanes=":1504153626_11_0 E7_1" intLanes=":1504153626_1_0 :1504153626_2_0 :1504153626_3_0 :1504153626_4_0 :1504153626_7_0 :1504153626_8_0 :1504153626_c0_0 :1504153626_c3_0"/>

    <connection from="E4" to="-E6" fromLane="1" toLane="1" via=":1504153626_9_0" tl="1504153626" linkIndex="9" dir="r" state="o"/>
    <connection from="E4" to="-E7" fromLane="1" toLane="1" via=":1504153626_10_0" tl="1504153626" linkIndex="10" dir="s" state="o"/>
    <connection from="E4" to="-E5" fromLane="1" toLane="1" via=":1504153626_11_0" tl="1504153626" linkIndex="11" dir="l" state="o"/>
    <connection from="E5" to="-E4" fromLane="1" toLane="1" via=":1504153626_0_0" tl="1504153626" linkIndex="0" dir="r" state="o"/>
    <connection from="E5" to="-E6" fromLane="1" toLane="1" via=":1504153626_1_0" tl="1504153626" linkIndex="1" dir="s" state="o"/>
    <connection from="E5" to="-E7" fromLane="1" toLane="1" via=":1504153626_2_0" tl="1504153626" linkIndex="2" dir="l" state="o"/>
    <connection from="E6" to="-E7" fromLane="1" toLane="1" via=":1504153626_6_0" tl="1504153626" linkIndex="6" dir="r" state="o"/>
    <connection from="E6" to="-E5" fromLane="1" toLane="1" via=":1504153626_7_0" tl="1504153626" linkIndex="7" dir="s" state="o"/>
    <connection from="E6" to="-E4" fromLane="1" toLane="1" via=":1504153626_8_0" tl="1504153626" linkIndex="8" dir="l" state="o"/>
    <connection from="E7" to="-E5" fromLane="1" toLane="1" via=":1504153626_3_0" tl="1504153626" linkIndex="3" dir="r" state="o"/>
    <connection from="E7" to="-E4" fromLane="1" toLane="1" via=":1504153626_4_0" tl="1504153626" linkIndex="4" dir="s" state="o"/>
    <connection from="E7" to="-E6" fromLane="1" toLane="1" via=":1504153626_5_0" tl="1504153626" linkIndex="5" dir="l" state="o"/>

    <connection from=":1504153626_0" to="-E4" fromLane="0" toLane="1" via=":1504153626_12_0" dir="r" state="m"/>
    <connection from=":1504153626_12" to="-E4" fromLane="0" toLane="1" dir="r" state="m"/>
    <connection from=":1504153626_1" to="-E6" fromLane="0" toLane="1" dir="s" state="M"/>
    <connection from=":1504153626_2" to="-E7" fromLane="0" toLane="1" via=":1504153626_13_0" dir="l" state="m"/>
    <connection from=":1504153626_13" to="-E7" fromLane="0" toLane="1" dir="l" state="m"/>
    <connection from=":1504153626_3" to="-E5" fromLane="0" toLane="1" via=":1504153626_14_0" dir="r" state="m"/>
    <connection from=":1504153626_14" to="-E5" fromLane="0" toLane="1" dir="r" state="m"/>
    <connection from=":1504153626_4" to="-E4" fromLane="0" toLane="1" dir="s" state="M"/>
    <connection from=":1504153626_5" to="-E6" fromLane="0" toLane="1" via=":1504153626_15_0" dir="l" state="m"/>
    <connection from=":1504153626_15" to="-E6" fromLane="0" toLane="1" dir="l" state="m"/>
    <connection from=":1504153626_6" to="-E7" fromLane="0" toLane="1" via=":1504153626_16_0" dir="r" state="m"/>
    <connection from=":1504153626_16" to="-E7" fromLane="0" toLane="1" dir="r" state="m"/>
    <connection from=":1504153626_7" to="-E5" fromLane="0" toLane="1" dir="s" state="M"/>
    <connection from=":1504153626_8" to="-E4" fromLane="0" toLane="1" via=":1504153626_17_0" dir="l" state="m"/>
    <connection from=":1504153626_17" to="-E4" fromLane="0" toLane="1" dir="l" state="m"/>
    <connection from=":1504153626_9" to="-E6" fromLane="0" toLane="1" via=":1504153626_18_0" dir="r" state="m"/>
    <connection from=":1504153626_18" to="-E6" fromLane="0" toLane="1" dir="r" state="m"/>
    <connection from=":1504153626_10" to="-E7" fromLane="0" toLane="1" dir="s" state="M"/>
    <connection from=":1504153626_11" to="-E5" fromLane="0" toLane="1" via=":1504153626_19_0" dir="l" state="m"/>
    <connection from=":1504153626_19" to="-E5" fromLane="0" toLane="1" dir="l" state="m"/>

    <connection from=":1504153626_c0" to=":1504153626_w0" fromLane="0" toLane="0" dir="s" state="M"/>
    <connection from=":1504153626_c1" to=":1504153626_w1" fromLane="0" toLane="0" dir="s" state="M"/>
    <connection from=":1504153626_c2" to=":1504153626_w2" fromLane="0" toLane="0" dir="s" state="M"/>
    <connection from=":1504153626_c3" to=":1504153626_w3" fromLane="0" toLane="0" dir="s" state="M"/>
    <connection from=":1504153626_w0" to=":1504153626_c3" fromLane="0" toLane="0" tl="1504153626" linkIndex="15" dir="s" state="M"/>
    <connection from=":1504153626_w0" to="-E4" fromLane="0" toLane="0" dir="s" state="M"/>
    <connection from="E5" to=":1504153626_w0" fromLane="0" toLane="0" dir="s" state="M"/>
    <connection from=":1504153626_w1" to=":1504153626_c0" fromLane="0" toLane="0" tl="1504153626" linkIndex="12" dir="s" state="M"/>
    <connection from=":1504153626_w1" to="-E5" fromLane="0" toLane="0" dir="s" state="M"/>
    <connection from="E7" to=":1504153626_w1" fromLane="0" toLane="0" dir="s" state="M"/>
    <connection from=":1504153626_w2" to=":1504153626_c1" fromLane="0" toLane="0" tl="1504153626" linkIndex="13" dir="s" state="M"/>
    <connection from=":1504153626_w2" to="-E7" fromLane="0" toLane="0" dir="s" state="M"/>
    <connection from="E6" to=":1504153626_w2" fromLane="0" toLane="0" dir="s" state="M"/>
    <connection from=":1504153626_w3" to=":1504153626_c2" fromLane="0" toLane="0" tl="1504153626" linkIndex="14" dir="s" state="M"/>
    <connection from=":1504153626_w3" to="-E6" fromLane="0" toLane="0" dir="s" state="M"/>
    <connection from="E4" to=":1504153626_w3" fromLane="0" toLane="0" dir="s" state="M"/>
    <connection from=":6916346823_w0" to="E5" fromLane="0" toLane="0" dir="s" state="M"/>
    <connection from="-E5" to=":6916346823_w0" fromLane="0" toLane="0" dir="s" state="M"/>
    <connection from=":7004347450_w0" to="E7" fromLane="0" toLane="0" dir="s" state="M"/>
    <connection from="-E7" to=":7004347450_w0" fromLane="0" toLane="0" dir="s" state="M"/>
    <connection from=":7004347451_w0" to="E6" fromLane="0" toLane="0" dir="s" state="M"/>
    <connection from="-E6" to=":7004347451_w0" fromLane="0" toLane="0" dir="s" state="M"/>
    <connection from=":7004347452_w0" to="E4" fromLane="0" toLane="0" dir="s" state="M"/>
    <connection from="-E4" to=":7004347452_w0" fromLane="0" toLane="0" dir="s" state="M"/>
</net>
