<?xml version="1.0" encoding="UTF-8"?>

<!-- generated on 2022-12-30 10:53:14 by Eclipse SUMO netedit Version v1_14_1+1789-6cfa3a18e2c
-->

<routes xmlns:xsi="http://www.w3.org/2001/XMLSchema-instance" xsi:noNamespaceSchemaLocation="http://sumo.dlr.de/xsd/routes_file.xsd">
    <!-- VTypes -->
    <vType id="DEFAULT_PEDTYPE" vClass="pedestrian" width="0.80" length = "1.00" color="yellow"/>
    <!-- Vehicles, persons and containers (sorted by depart) -->
    <trip id="0" depart="0.00" from="327917960#0" to="-165893413" via="327917960#1 327917960#2 -767729564#1 -767729564#0"/>
    <personFlow id="pf_1" begin="0.00" end="120.00" probability="0.05">
        <personTrip from="784001415#0" to="784001415#1" lines="ANY"/>
    </personFlow>
    <trip id="74" depart="1.00" from="165893413" to="196117064#1" via="767729564#0 767729564#1 196117064#0"/>
    <trip id="75" depart="1.50" from="165893413" to="-327917960#0" via="767729564#0 767729564#1 -327917960#2 -327917960#1"/>
    <trip id="70" depart="2.00" from="-196116971#1" to="196117064#1" via="-196116971#0 196117064#0"/>
    <trip id="71" depart="3.00" from="327917960#0" to="196117064#1" via="327917960#1 327917960#2 196117064#0"/>
    <trip id="72" depart="4.00" from="-196117064#1" to="196117064#1" via="-196117064#0 196117064#0"/>
    <trip id="1" depart="5.00" from="-196117064#1" to="196117064#1" via="-196117064#0 196117064#0"/>
    <trip id="73" depart="5.00" from="327917960#0" to="-165893413" via="327917960#1 327917960#2 -767729564#1 -767729564#0"/>
    <trip id="2" depart="6.00" from="-196117064#1" to="-165893413" via="-196117064#0 -767729564#1 -767729564#0"/>
    <trip id="3" depart="7.00" from="165893413" to="196117064#1" via="767729564#0 767729564#1 196117064#0"/>
    <trip id="4" depart="8.00" from="165893413" to="-327917960#0" via="767729564#0 767729564#1 -327917960#2 -327917960#1"/>
    <trip id="5" depart="9.00" from="-196117064#1" to="-327917960#0" via="-196117064#0 -327917960#2 -327917960#1"/>
    <trip id="6" depart="10.00" from="-196116971#1" to="196117064#1" via="-196116971#0 196117064#0"/>
    <trip id="7" depart="10.00" from="-196117064#1" to="-327917960#0" via="-196117064#0 -327917960#1"/>
    <trip id="8" depart="11.00" from="-196116971#1" to="196117064#1" via="-196116971#0 196117064#0"/>
    <trip id="9" depart="12.00" from="-196117064#1" to="196117064#1" via="-196117064#0 196117064#0"/>
    <trip id="10" depart="13.00" from="327917960#0" to="-165893413" via="327917960#1 327917960#2 -767729564#1 -767729564#0"/>
    <trip id="11" depart="15.00" from="-196116971#1" to="-327917960#0" via="-196116971#0 -327917960#2 -327917960#1"/>
    <trip id="12" depart="16.00" from="165893413" to="196117064#1" via="767729564#0 767729564#1 196117064#0"/>
    <trip id="13" depart="16.00" from="-196117064#1" to="-327917960#0" via="-196117064#0 -327917960#1"/>
    <trip id="14" depart="17.00" from="-196117064#1" to="-327917960#0" via="-196117064#0 -327917960#2 -327917960#1"/>
    <trip id="15" depart="19.00" from="165893413" to="196117064#1" via="767729564#0 767729564#1 196117064#0"/>
    <trip id="16" depart="20.00" from="-196116971#1" to="196117064#1" via="-196116971#0 196117064#0"/>
    <trip id="17" depart="22.00" from="-196117064#1" to="-165893413" via="-196117064#0 -767729564#1 -767729564#0"/>
    <trip id="18" depart="24.00" from="165893413" to="196117064#1" via="767729564#0 767729564#1 196117064#0"/>
    <trip id="19" depart="24.00" from="-196117064#1" to="-165893413" via="-196117064#0 -767729564#1 -767729564#0"/>
    <trip id="20" depart="24.00" from="327917960#0" to="196117064#1" via="327917960#1 327917960#2 196117064#0"/>
    <trip id="21" depart="25.00" from="-196117064#1" to="196117064#1" via="-196117064#0 196117064#0"/>
    <trip id="22" depart="26.00" from="327917960#0" to="-165893413" via="327917960#1 327917960#2 -767729564#1 -767729564#0"/>
    <trip id="23" depart="27.00" from="165893413" to="196117064#1" via="767729564#0 767729564#1 196117064#0"/>
    <trip id="24" depart="28.00" from="-196117064#1" to="196117064#1" via="-196117064#0 196117064#0"/>
    <trip id="25" depart="29.00" from="327917960#0" to="-165893413" via="327917960#1 327917960#2 -767729564#1 -767729564#0"/>
    <trip id="26" depart="30.00" from="-196117064#1" to="-165893413" via="-196117064#0 -767729564#1 -767729564#0"/>
    <trip id="27" depart="31.00" from="-196117064#1" to="-327917960#0" via="-196117064#0 -327917960#1"/>
    <trip id="28" depart="32.00" from="-196116971#1" to="196117064#1" via="-196116971#0 196117064#0"/>
    <trip id="29" depart="33.00" from="-196117064#1" to="196117064#1" via="-196117064#0 196117064#0"/>
    <trip id="30" depart="34.00" from="327917960#0" to="-165893413" via="327917960#1 327917960#2 -767729564#1 -767729564#0"/>
    <trip id="31" depart="35.00" from="-196116971#1" to="-327917960#0" via="-196116971#0 -327917960#2 -327917960#1"/>
    <trip id="32" depart="36.00" from="165893413" to="196117064#1" via="767729564#0 767729564#1 196117064#0"/>
    <trip id="33" depart="37.00" from="-196117064#1" to="-327917960#0" via="-196117064#0 -327917960#1"/>
    <trip id="34" depart="38.00" from="-196117064#1" to="-327917960#0" via="-196117064#0 -327917960#2 -327917960#1"/>
    <trip id="35" depart="39.00" from="165893413" to="196117064#1" via="767729564#0 767729564#1 196117064#0"/>
    <trip id="36" depart="40.00" from="165893413" to="196117064#1" via="767729564#0 767729564#1 196117064#0"/>
    <trip id="37" depart="42.00" from="165893413" to="-327917960#0" via="767729564#0 767729564#1 -327917960#2 -327917960#1"/>
    <trip id="38" depart="44.00" from="-196117064#1" to="-327917960#0" via="-196117064#0 -327917960#2 -327917960#1"/>
    <trip id="39" depart="45.00" from="-196116971#1" to="-327917960#0" via="-196116971#0 -327917960#2 -327917960#1"/>
    <trip id="40" depart="46.00" from="-196117064#1" to="196117064#1" via="-196117064#0 196117064#0"/>
    <trip id="41" depart="47.00" from="-196117064#1" to="-165893413" via="-196117064#0 -767729564#1 -767729564#0"/>
    <trip id="42" depart="48.00" from="327917960#0" to="196117064#1" via="327917960#1 327917960#2 196117064#0"/>
    <trip id="43" depart="49.00" from="-196117064#1" to="196117064#1" via="-196117064#0 196117064#0"/>
    <trip id="44" depart="50.00" from="327917960#0" to="-165893413" via="327917960#1 327917960#2 -767729564#1 -767729564#0"/>
    <trip id="45" depart="51.00" from="165893413" to="196117064#1" via="767729564#0 767729564#1 196117064#0"/>
    <trip id="60" depart="51.00" from="165893413" to="196117064#1" via="767729564#0 767729564#1 196117064#0"/>
    <trip id="46" depart="52.00" from="-196117064#1" to="196117064#1" via="-196117064#0 196117064#0"/>
    <trip id="47" depart="53.00" from="327917960#0" to="-165893413" via="327917960#1 327917960#2 -767729564#1 -767729564#0"/>
    <trip id="48" depart="54.00" from="-196117064#1" to="-165893413" via="-196117064#0 -767729564#1 -767729564#0"/>
    <trip id="49" depart="55.00" from="-196117064#1" to="-327917960#0" via="-196117064#0 -327917960#1"/>
    <trip id="50" depart="56.00" from="-196116971#1" to="196117064#1" via="-196116971#0 196117064#0"/>
    <trip id="51" depart="57.00" from="-196117064#1" to="196117064#1" via="-196117064#0 196117064#0"/>
    <trip id="52" depart="58.00" from="327917960#0" to="-165893413" via="327917960#1 327917960#2 -767729564#1 -767729564#0"/>
    <trip id="53" depart="59.00" from="-196116971#1" to="-327917960#0" via="-196116971#0 -327917960#2 -327917960#1"/>
    <trip id="54" depart="60.00" from="165893413" to="196117064#1" via="767729564#0 767729564#1 196117064#0"/>
    <trip id="55" depart="62.00" from="-196117064#1" to="-327917960#0" via="-196117064#0 -327917960#1"/>
    <trip id="56" depart="63.00" from="-196117064#1" to="-327917960#0" via="-196117064#0 -327917960#2 -327917960#1"/>
    <trip id="57" depart="64.00" from="165893413" to="196117064#1" via="767729564#0 767729564#1 196117064#0"/>
</routes>
