<?xml version="1.0" encoding="UTF-8"?>

<!-- generated on 2022-12-30 09:19:59 by Eclipse SUMO netedit Version v1_14_1+1789-6cfa3a18e2c
<configuration xmlns:xsi="http://www.w3.org/2001/XMLSchema-instance" xsi:noNamespaceSchemaLocation="http://sumo.dlr.de/xsd/netconvertConfiguration.xsd">

    <input>
        <sumo-net-file value="/Users/Res_proj/Documents/Research/120-amsterdam/map/map1.net.xml"/>
    </input>

    <output>
        <output-file value="/Users/Res_proj/Documents/Research/120-amsterdam/map/map1.net.xml"/>
    </output>

    <processing>
        <geometry.min-radius.fix.railways value="false"/>
        <geometry.max-grade.fix value="false"/>
        <offset.disable-normalization value="true"/>
        <lefthand value="0"/>
    </processing>

    <junctions>
        <no-internal-links value="false"/>
        <no-turnarounds value="true"/>
        <junctions.corner-detail value="5"/>
        <junctions.limit-turn-speed value="5.50"/>
        <rectangular-lane-cut value="0"/>
    </junctions>

    <pedestrian>
        <walkingareas value="true"/>
    </pedestrian>

</configuration>
-->

<net version="1.9" junctionCornerDetail="5" walkingareas="true" limitTurnSpeed="5.50" xmlns:xsi="http://www.w3.org/2001/XMLSchema-instance" xsi:noNamespaceSchemaLocation="http://sumo.dlr.de/xsd/net_file.xsd">

    <location netOffset="-587553.36,-4517914.65" convBoundary="0.00,0.00,366.34,332.42" origBoundary="-73.961934,40.807561,-73.957617,40.810567" projParameter="+proj=utm +zone=18 +ellps=WGS84 +datum=WGS84 +units=m +no_defs"/>

    <type id="highway.bridleway" priority="1" numLanes="1" speed="2.78" allow="pedestrian" oneway="1" width="2.00"/>
    <type id="highway.bus_guideway" priority="1" numLanes="1" speed="27.78" allow="bus" oneway="1"/>
    <type id="highway.cycleway" priority="1" numLanes="1" speed="5.56" allow="bicycle" oneway="0" width="1.00"/>
    <type id="highway.footway" priority="1" numLanes="1" speed="2.78" allow="pedestrian" oneway="1" width="2.00"/>
    <type id="highway.ford" priority="1" numLanes="1" speed="2.78" allow="army" oneway="0"/>
    <type id="highway.living_street" priority="2" numLanes="1" speed="2.78" disallow="tram rail_urban rail rail_electric rail_fast ship" oneway="0"/>
    <type id="highway.motorway" priority="14" numLanes="2" speed="39.44" allow="private emergency authority army vip passenger hov taxi bus coach delivery truck trailer motorcycle evehicle custom1 custom2" oneway="1"/>
    <type id="highway.motorway_link" priority="9" numLanes="1" speed="22.22" allow="private emergency authority army vip passenger hov taxi bus coach delivery truck trailer motorcycle evehicle custom1 custom2" oneway="1"/>
    <type id="highway.path" priority="1" numLanes="1" speed="5.56" allow="pedestrian bicycle" oneway="0" width="2.00"/>
    <type id="highway.pedestrian" priority="1" numLanes="1" speed="2.78" allow="pedestrian" oneway="1" width="2.00"/>
    <type id="highway.primary" priority="12" numLanes="2" speed="27.78" disallow="tram rail_urban rail rail_electric rail_fast ship" oneway="0"/>
    <type id="highway.primary_link" priority="7" numLanes="1" speed="22.22" disallow="tram rail_urban rail rail_electric rail_fast ship" oneway="0"/>
    <type id="highway.raceway" priority="15" numLanes="2" speed="83.33" allow="vip" oneway="0"/>
    <type id="highway.residential" priority="3" numLanes="1" speed="13.89" disallow="tram rail_urban rail rail_electric rail_fast ship" oneway="0"/>
    <type id="highway.secondary" priority="11" numLanes="1" speed="27.78" disallow="tram rail_urban rail rail_electric rail_fast ship" oneway="0"/>
    <type id="highway.secondary_link" priority="6" numLanes="1" speed="22.22" disallow="tram rail_urban rail rail_electric rail_fast ship" oneway="0"/>
    <type id="highway.service" priority="1" numLanes="1" speed="5.56" allow="pedestrian delivery bicycle" oneway="0"/>
    <type id="highway.stairs" priority="1" numLanes="1" speed="1.39" allow="pedestrian" oneway="1" width="2.00"/>
    <type id="highway.step" priority="1" numLanes="1" speed="1.39" allow="pedestrian" oneway="1" width="2.00"/>
    <type id="highway.steps" priority="1" numLanes="1" speed="1.39" allow="pedestrian" oneway="1" width="2.00"/>
    <type id="highway.tertiary" priority="10" numLanes="1" speed="22.22" disallow="tram rail_urban rail rail_electric rail_fast ship" oneway="0"/>
    <type id="highway.tertiary_link" priority="5" numLanes="1" speed="22.22" disallow="tram rail_urban rail rail_electric rail_fast ship" oneway="0"/>
    <type id="highway.track" priority="1" numLanes="1" speed="5.56" allow="pedestrian motorcycle moped bicycle" oneway="0"/>
    <type id="highway.trunk" priority="13" numLanes="2" speed="27.78" disallow="pedestrian bicycle tram rail_urban rail rail_electric rail_fast ship" oneway="0"/>
    <type id="highway.trunk_link" priority="8" numLanes="1" speed="22.22" disallow="pedestrian bicycle tram rail_urban rail rail_electric rail_fast ship" oneway="0"/>
    <type id="highway.unclassified" priority="4" numLanes="1" speed="13.89" disallow="tram rail_urban rail rail_electric rail_fast ship" oneway="0"/>
    <type id="highway.unsurfaced" priority="1" numLanes="1" speed="8.33" disallow="tram rail_urban rail rail_electric rail_fast ship" oneway="0"/>
    <type id="railway.highspeed" priority="21" numLanes="1" speed="69.44" allow="rail_fast" oneway="1"/>
    <type id="railway.light_rail" priority="19" numLanes="1" speed="27.78" allow="rail_urban" oneway="1"/>
    <type id="railway.preserved" priority="16" numLanes="1" speed="27.78" allow="rail" oneway="1"/>
    <type id="railway.rail" priority="20" numLanes="1" speed="44.44" allow="rail" oneway="1"/>
    <type id="railway.subway" priority="18" numLanes="1" speed="27.78" allow="rail_urban" oneway="1"/>
    <type id="railway.tram" priority="17" numLanes="1" speed="13.89" allow="tram" oneway="1"/>

    <edge id=":1504153626_0" function="internal">
        <lane id=":1504153626_0_0" index="0" disallow="tram rail_urban rail rail_electric rail_fast ship" speed="7.17" length="11.20" shape="234.29,208.66 232.28,205.68 230.13,203.93 227.86,203.42 225.46,204.14"/>
    </edge>
    <edge id=":1504153626_1" function="internal">
        <lane id=":1504153626_1_0" index="0" disallow="tram rail_urban rail rail_electric rail_fast ship" speed="27.78" length="17.01" shape="234.29,208.66 226.14,193.74"/>
    </edge>
    <edge id=":1504153626_2" function="internal">
        <lane id=":1504153626_2_0" index="0" disallow="tram rail_urban rail rail_electric rail_fast ship" speed="8.55" length="5.23" shape="234.29,208.66 232.40,204.01 232.39,203.80"/>
    </edge>
    <edge id=":1504153626_3" function="internal">
        <lane id=":1504153626_3_0" index="0" disallow="tram rail_urban rail rail_electric rail_fast ship" speed="3.65" length="1.44" shape="234.29,208.66 234.42,207.23"/>
    </edge>
    <edge id=":1504153626_16" function="internal">
        <lane id=":1504153626_16_0" index="0" disallow="tram rail_urban rail rail_electric rail_fast ship" speed="8.55" length="11.10" shape="232.39,203.80 232.15,200.10 233.55,196.91 236.59,194.45"/>
    </edge>
    <edge id=":1504153626_17" function="internal">
        <lane id=":1504153626_17_0" index="0" disallow="tram rail_urban rail rail_electric rail_fast ship" speed="3.65" length="3.23" shape="234.42,207.23 234.94,206.49 235.83,206.47 237.11,207.14"/>
    </edge>
    <edge id=":1504153626_4" function="internal">
        <lane id=":1504153626_4_0" index="0" disallow="tram rail_urban rail rail_electric rail_fast ship" speed="6.36" length="8.56" shape="239.65,200.07 237.64,201.51 236.55,203.17 236.37,205.05 237.11,207.14"/>
    </edge>
    <edge id=":1504153626_5" function="internal">
        <lane id=":1504153626_5_0" index="0" disallow="tram rail_urban rail rail_electric rail_fast ship" speed="13.89" length="14.84" shape="239.65,200.07 235.31,201.86 231.77,202.53 228.62,202.99 225.46,204.14"/>
    </edge>
    <edge id=":1504153626_6" function="internal">
        <lane id=":1504153626_6_0" index="0" disallow="tram rail_urban rail rail_electric rail_fast ship" speed="8.03" length="4.05" shape="238.12,197.26 234.48,198.61 234.31,198.60"/>
    </edge>
    <edge id=":1504153626_7" function="internal">
        <lane id=":1504153626_7_0" index="0" disallow="tram rail_urban rail rail_electric rail_fast ship" speed="3.65" length="1.44" shape="238.12,197.26 236.68,197.13"/>
    </edge>
    <edge id=":1504153626_18" function="internal">
        <lane id=":1504153626_18_0" index="0" disallow="tram rail_urban rail rail_electric rail_fast ship" speed="8.03" length="10.16" shape="234.31,198.60 231.27,198.47 228.49,196.85 226.14,193.74"/>
    </edge>
    <edge id=":1504153626_19" function="internal">
        <lane id=":1504153626_19_0" index="0" disallow="tram rail_urban rail rail_electric rail_fast ship" speed="3.65" length="3.23" shape="236.68,197.13 235.95,196.62 235.92,195.72 236.59,194.45"/>
    </edge>
    <edge id=":1504153626_8" function="internal">
        <lane id=":1504153626_8_0" index="0" disallow="tram rail_urban rail rail_electric rail_fast ship" speed="6.54" length="9.08" shape="228.94,192.19 230.44,194.18 232.22,195.22 234.27,195.31 236.59,194.45"/>
    </edge>
    <edge id=":1504153626_9" function="internal">
        <lane id=":1504153626_9_0" index="0" disallow="tram rail_urban rail rail_electric rail_fast ship" speed="27.78" length="17.04" shape="228.94,192.19 237.11,207.14"/>
    </edge>
    <edge id=":1504153626_10" function="internal">
        <lane id=":1504153626_10_0" index="0" disallow="tram rail_urban rail rail_electric rail_fast ship" speed="7.99" length="4.12" shape="228.94,192.19 230.33,195.83 230.32,196.05"/>
    </edge>
    <edge id=":1504153626_11" function="internal">
        <lane id=":1504153626_11_0" index="0" disallow="tram rail_urban rail rail_electric rail_fast ship" speed="3.65" length="1.44" shape="228.94,192.19 228.82,193.62"/>
    </edge>
    <edge id=":1504153626_20" function="internal">
        <lane id=":1504153626_20_0" index="0" disallow="tram rail_urban rail rail_electric rail_fast ship" speed="7.99" length="10.10" shape="230.32,196.05 230.21,199.04 228.59,201.81 225.46,204.14"/>
    </edge>
    <edge id=":1504153626_21" function="internal">
        <lane id=":1504153626_21_0" index="0" disallow="tram rail_urban rail rail_electric rail_fast ship" speed="3.65" length="3.23" shape="228.82,193.62 228.32,194.36 227.42,194.40 226.14,193.74"/>
    </edge>
    <edge id=":1504153626_12" function="internal">
        <lane id=":1504153626_12_0" index="0" disallow="tram rail_urban rail rail_electric rail_fast ship" speed="6.49" length="9.03" shape="223.93,201.33 225.92,199.85 226.95,198.09 227.02,196.05 226.14,193.74"/>
    </edge>
    <edge id=":1504153626_13" function="internal">
        <lane id=":1504153626_13_0" index="0" disallow="tram rail_urban rail rail_electric rail_fast ship" speed="13.89" length="14.41" shape="223.93,201.33 236.59,194.45"/>
    </edge>
    <edge id=":1504153626_14" function="internal">
        <lane id=":1504153626_14_0" index="0" disallow="tram rail_urban rail rail_electric rail_fast ship" speed="8.54" length="5.24" shape="223.93,201.33 227.66,200.11 228.96,200.32"/>
    </edge>
    <edge id=":1504153626_15" function="internal">
        <lane id=":1504153626_15_0" index="0" disallow="tram rail_urban rail rail_electric rail_fast ship" speed="3.65" length="1.44" shape="223.93,201.33 225.37,201.46"/>
    </edge>
    <edge id=":1504153626_22" function="internal">
        <lane id=":1504153626_22_0" index="0" disallow="tram rail_urban rail rail_electric rail_fast ship" speed="8.54" length="11.12" shape="228.96,200.32 231.10,200.67 234.25,203.02 237.11,207.14"/>
    </edge>
    <edge id=":1504153626_23" function="internal">
        <lane id=":1504153626_23_0" index="0" disallow="tram rail_urban rail rail_electric rail_fast ship" speed="3.65" length="3.23" shape="225.37,201.46 226.10,201.97 226.13,202.86 225.46,204.14"/>
    </edge>
    <edge id=":1504153626_w0" function="walkingarea">
        <lane id=":1504153626_w0_0" index="0" allow="pedestrian" speed="1.00" length="11.64" width="3.20" shape="232.88,209.42 235.70,207.90 238.51,206.38 240.41,201.48 238.88,198.66 237.36,195.85 235.83,193.04 230.34,191.41 227.54,192.96 224.74,194.51 223.17,199.92 224.70,202.73 226.23,205.54"/>
    </edge>
    <edge id=":2340960702_0" function="internal">
        <lane id=":2340960702_0_0" index="0" disallow="tram rail_urban rail rail_electric rail_fast ship" speed="3.65" length="4.67" shape="31.61,307.95 30.17,307.81 29.44,307.30 29.41,306.41 30.09,305.13"/>
    </edge>
    <edge id=":3579432160_0" function="internal">
        <lane id=":3579432160_0_0" index="0" disallow="tram rail_urban rail rail_electric rail_fast ship" speed="3.65" length="4.67" shape="365.56,124.16 367.00,124.28 367.74,124.78 367.78,125.67 367.12,126.96"/>
    </edge>
    <edge id=":3579432161_0" function="internal">
        <lane id=":3579432161_0_0" index="0" disallow="tram rail_urban rail rail_electric rail_fast ship" speed="3.65" length="4.67" shape="272.41,272.05 272.27,273.49 271.76,274.22 270.87,274.25 269.59,273.57"/>
    </edge>
    <edge id=":6816455650_w0" function="walkingarea">
        <lane id=":6816455650_w0_0" index="0" allow="pedestrian" speed="1.00" length="4.08" width="2.00" shape="247.72,206.43 249.49,205.50 250.11,203.34 249.13,201.60 247.12,201.01 245.36,201.94 244.72,204.12 245.72,205.85"/>
    </edge>
    <edge id=":6839169601_w0" function="walkingarea">
        <lane id=":6839169601_w0_0" index="0" allow="pedestrian" speed="1.00" length="0.29" width="2.00" shape="244.87,206.35 243.86,204.62 243.62,204.76 244.61,206.50"/>
    </edge>
    <edge id=":6887003316_w0" function="walkingarea">
        <lane id=":6887003316_w0_0" index="0" allow="pedestrian" speed="1.00" length="0.22" width="2.00" shape="223.50,213.82 225.27,212.89 225.14,212.66 223.41,213.66"/>
    </edge>
    <edge id=":6916346823_0" function="internal">
        <lane id=":6916346823_0_0" index="0" disallow="tram rail_urban rail rail_electric rail_fast ship" speed="27.78" length="4.46" shape="236.51,212.77 234.39,208.84"/>
    </edge>
    <edge id=":6916346823_1" function="internal">
        <lane id=":6916346823_1_0" index="0" disallow="tram rail_urban rail rail_electric rail_fast ship" speed="27.78" length="4.46" shape="237.20,207.32 239.32,211.24"/>
    </edge>
    <edge id=":6916346823_w0" function="walkingarea">
        <lane id=":6916346823_w0_0" index="0" allow="pedestrian" speed="1.00" length="5.19" width="3.20" shape="235.10,213.53 237.92,212.00 240.73,210.48 241.33,208.36 240.35,206.62 238.61,206.56 235.79,208.08 232.98,209.60 232.12,211.16 233.07,212.92"/>
    </edge>
    <edge id=":6916346847_0" function="internal">
        <lane id=":6916346847_0_0" index="0" disallow="tram rail_urban rail rail_electric rail_fast ship" speed="27.78" length="0.29" shape="266.67,268.17 266.53,267.91"/>
    </edge>
    <edge id=":6916346847_1" function="internal">
        <lane id=":6916346847_1_0" index="0" disallow="tram rail_urban rail rail_electric rail_fast ship" speed="27.78" length="0.30" shape="269.34,266.38 269.49,266.65"/>
    </edge>
    <edge id=":6916346847_w0" function="walkingarea">
        <lane id=":6916346847_w0_0" index="0" allow="pedestrian" speed="1.00" length="2.24" width="3.20" shape="265.27,268.93 268.08,267.41 270.90,265.89 270.75,265.62 267.94,267.15 265.13,268.68"/>
    </edge>
    <edge id=":6919167808_0" function="internal">
        <lane id=":6919167808_0_0" index="0" allow="pedestrian delivery bicycle" speed="5.56" length="0.98" shape="165.55,150.68 165.30,150.81 165.12,150.90 164.93,150.96 164.65,151.05"/>
    </edge>
    <edge id=":6919167808_1" function="internal">
        <lane id=":6919167808_1_0" index="0" allow="pedestrian delivery bicycle" speed="5.56" length="0.33" shape="163.74,147.98 163.83,147.95 163.90,147.93 163.96,147.90 164.04,147.86"/>
    </edge>
    <edge id=":6919167808_w0" function="walkingarea">
        <lane id=":6919167808_w0_0" index="0" allow="pedestrian" speed="1.00" length="2.37" width="3.20" shape="166.31,152.09 164.80,149.27 163.29,146.44 164.20,149.51 165.10,152.58"/>
    </edge>
    <edge id=":6919167819_0" function="internal">
        <lane id=":6919167819_0_0" index="0" allow="pedestrian delivery bicycle" speed="3.65" length="4.67" shape="141.87,133.58 141.99,132.15 142.50,131.41 143.39,131.37 144.67,132.04"/>
    </edge>
    <edge id=":6919167828_0" function="internal">
        <lane id=":6919167828_0_0" index="0" allow="pedestrian delivery bicycle" speed="3.65" length="4.67" shape="180.74,138.90 182.18,139.04 182.91,139.55 182.94,140.45 182.26,141.72"/>
    </edge>
    <edge id=":6927650852_w0" function="walkingarea">
        <lane id=":6927650852_w0_0" index="0" allow="pedestrian" speed="1.00" length="4.03" width="2.00" shape="265.00,239.19 266.76,238.23 267.37,236.19 266.41,234.43 264.39,233.83 262.62,234.76"/>
    </edge>
    <edge id=":7004347450_0" function="internal">
        <lane id=":7004347450_0_0" index="0" disallow="tram rail_urban rail rail_electric rail_fast ship" speed="13.89" length="5.05" shape="246.42,196.39 241.98,198.81"/>
        <lane id=":7004347450_0_1" index="1" disallow="tram rail_urban rail rail_electric rail_fast ship" speed="13.89" length="5.05" shape="244.89,193.58 240.45,195.99"/>
    </edge>
    <edge id=":7004347450_2" function="internal">
        <lane id=":7004347450_2_0" index="0" disallow="tram rail_urban rail rail_electric rail_fast ship" speed="13.89" length="5.05" shape="238.92,193.18 243.36,190.77"/>
    </edge>
    <edge id=":7004347450_w0" function="walkingarea">
        <lane id=":7004347450_w0_0" index="0" allow="pedestrian" speed="1.00" length="7.14" width="3.20" shape="244.76,200.82 246.53,199.88 247.18,197.80 245.65,194.99 244.12,192.18 242.59,189.37 240.56,188.76 238.80,189.72 238.16,191.77 239.69,194.59 241.21,197.40 242.74,200.21"/>
    </edge>
    <edge id=":7004347451_0" function="internal">
        <lane id=":7004347451_0_0" index="0" disallow="tram rail_urban rail rail_electric rail_fast ship" speed="27.78" length="5.09" shape="224.57,190.89 222.11,186.43"/>
    </edge>
    <edge id=":7004347451_1" function="internal">
        <lane id=":7004347451_1_0" index="0" disallow="tram rail_urban rail rail_electric rail_fast ship" speed="27.78" length="5.07" shape="224.92,184.90 227.37,189.34"/>
    </edge>
    <edge id=":7004347451_w0" function="walkingarea">
        <lane id=":7004347451_w0_0" index="0" allow="pedestrian" speed="1.00" length="5.43" width="3.20" shape="223.17,191.66 225.97,190.11 228.77,188.57 229.36,186.38 228.33,184.67 226.32,184.13 223.52,185.66 220.71,187.20 220.15,189.31 221.09,191.07"/>
    </edge>
    <edge id=":7004347452_0" function="internal">
        <lane id=":7004347452_0_0" index="0" disallow="tram rail_urban rail rail_electric rail_fast ship" speed="13.89" length="5.21" shape="222.83,205.57 218.24,208.04"/>
    </edge>
    <edge id=":7004347452_1" function="internal">
        <lane id=":7004347452_1_0" index="0" disallow="tram rail_urban rail rail_electric rail_fast ship" speed="13.89" length="5.17" shape="216.74,205.21 221.30,202.76"/>
    </edge>
    <edge id=":7004347452_w0" function="walkingarea">
        <lane id=":7004347452_w0_0" index="0" allow="pedestrian" speed="1.00" length="5.47" width="3.20" shape="221.29,209.99 223.03,208.99 223.59,206.98 222.06,204.17 220.53,201.36 218.30,200.80 216.57,201.79 215.99,203.80 217.49,206.62 218.99,209.45"/>
    </edge>
    <edge id=":7004347453_0" function="internal">
        <lane id=":7004347453_0_0" index="0" disallow="tram rail_urban rail rail_electric rail_fast ship" speed="27.78" length="5.03" shape="198.35,143.07 195.89,138.68"/>
    </edge>
    <edge id=":7004347453_1" function="internal">
        <lane id=":7004347453_1_0" index="0" disallow="tram rail_urban rail rail_electric rail_fast ship" speed="27.78" length="5.09" shape="198.66,137.09 201.15,141.53"/>
    </edge>
    <edge id=":7004347453_w0" function="walkingarea">
        <lane id=":7004347453_w0_0" index="0" allow="pedestrian" speed="1.00" length="5.41" width="3.20" shape="196.94,143.84 199.75,142.30 202.56,140.76 203.15,138.72 202.20,136.97 200.05,136.29 197.28,137.88 194.50,139.47 193.93,141.50 194.90,143.25"/>
    </edge>
    <edge id=":7168010780_0" function="internal">
        <lane id=":7168010780_0_0" index="0" disallow="tram rail_urban rail rail_electric rail_fast ship" speed="13.89" length="8.40" shape="274.38,177.53 272.46,179.15 271.63,180.85 270.80,182.55 268.88,184.17"/>
        <lane id=":7168010780_0_1" index="1" disallow="tram rail_urban rail rail_electric rail_fast ship" speed="13.89" length="8.40" shape="274.38,177.53 267.35,181.36"/>
    </edge>
    <edge id=":7168010780_2" function="internal">
        <lane id=":7168010780_2_0" index="0" disallow="tram rail_urban rail rail_electric rail_fast ship" speed="13.89" length="8.00" shape="265.82,178.55 272.85,174.72"/>
    </edge>
    <edge id=":7168010780_w0" function="walkingarea">
        <lane id=":7168010780_w0_0" index="0" allow="pedestrian" speed="1.00" length="7.51" width="3.20" shape="275.14,178.94 273.61,176.13 272.09,173.32 265.06,177.14 266.59,179.95 268.12,182.76 269.65,185.57"/>
    </edge>
    <edge id=":7323390439_w0" function="walkingarea">
        <lane id=":7323390439_w0_0" index="0" allow="pedestrian" speed="1.00" length="0.25" width="2.00" shape="214.68,198.52 216.42,197.52 216.31,197.33 214.55,198.27"/>
    </edge>
    <edge id=":8376008898_w0" function="walkingarea">
        <lane id=":8376008898_w0_0" index="0" allow="pedestrian" speed="1.00" length="0.30" width="2.00" shape="245.01,201.28 246.77,200.35 246.63,200.08 244.87,201.02"/>
    </edge>
    <edge id=":8376008899_w0" function="walkingarea">
        <lane id=":8376008899_w0_0" index="0" allow="pedestrian" speed="1.00" length="0.27" width="2.00" shape="236.45,185.41 238.20,184.45 238.06,184.19 236.33,185.19"/>
    </edge>
    <edge id=":8376008900_w0" function="walkingarea">
        <lane id=":8376008900_w0_0" index="0" allow="pedestrian" speed="1.00" length="4.07" width="2.00" shape="235.89,184.43 237.62,183.43 238.19,181.42 237.24,179.66 235.12,179.05 233.38,180.03 232.79,182.04 233.73,183.81"/>
    </edge>
    <edge id=":8376008901_w0" function="walkingarea">
        <lane id=":8376008901_w0_0" index="0" allow="pedestrian" speed="1.00" length="0.10" width="2.00" shape="232.95,184.22 232.01,182.46 233.00,184.20"/>
    </edge>
    <edge id=":8376008902_w0" function="walkingarea">
        <lane id=":8376008902_w0_0" index="0" allow="pedestrian" speed="1.00" length="0.26" width="2.00" shape="217.09,193.21 216.14,191.45 215.89,191.59 216.88,193.32"/>
    </edge>
    <edge id=":8376008903_w0" function="walkingarea">
        <lane id=":8376008903_w0_0" index="0" allow="pedestrian" speed="1.00" length="4.06" width="2.00" shape="213.77,196.81 215.53,195.87 216.16,193.73 215.17,192.00 213.16,191.42 211.40,192.36 210.79,194.45 211.75,196.20"/>
    </edge>
    <edge id=":8376008914_w0" function="walkingarea">
        <lane id=":8376008914_w0_0" index="0" allow="pedestrian" speed="1.00" length="4.03" width="2.00" shape="188.05,148.51 189.82,147.57 190.44,145.54 189.51,143.78 187.47,143.16 185.70,144.10"/>
    </edge>
    <edge id=":8376008915_w0" function="walkingarea">
        <lane id=":8376008915_w0_0" index="0" allow="pedestrian" speed="1.00" length="0.29" width="2.00" shape="191.16,145.17 190.25,143.38 189.99,143.52 190.92,145.29"/>
    </edge>
    <edge id=":8379847773_0" function="internal">
        <lane id=":8379847773_0_0" index="0" disallow="tram rail_urban rail rail_electric rail_fast ship" speed="3.65" length="4.67" shape="121.64,0.75 121.78,-0.68 122.30,-1.41 123.19,-1.44 124.46,-0.75"/>
    </edge>
    <edge id=":9518259681_w0" function="walkingarea">
        <lane id=":9518259681_w0_0" index="0" allow="pedestrian" speed="1.00" length="4.00" width="2.00" shape="225.84,218.29 227.61,217.36 225.31,212.98 223.54,213.91 222.87,215.91 223.83,217.67"/>
    </edge>

    <edge id="-165893413" from="7168010780" to="3579432160" priority="3" type="highway.residential" shape="270.10,178.04 357.80,130.34 366.34,125.56">
        <lane id="-165893413_0" index="0" disallow="tram rail_urban rail rail_electric rail_fast ship" speed="13.89" length="105.60" shape="272.85,174.72 357.03,128.94 365.56,124.16"/>
    </edge>
    <edge id="-196116971#0" from="6916346823" to="1504153626" priority="11" type="highway.secondary" shape="236.73,209.81 233.29,203.45 231.04,199.28">
        <lane id="-196116971#0_0" index="0" disallow="tram rail_urban rail rail_electric rail_fast ship" speed="27.78" length="0.20" shape="234.39,208.84 234.29,208.66"/>
    </edge>
    <edge id="-196116971#1" from="6916346847" to="6916346823" priority="11" type="highway.secondary" shape="268.01,267.28 239.62,215.15 236.73,209.81">
        <lane id="-196116971#1_0" index="0" disallow="tram rail_urban rail rail_electric rail_fast ship" speed="27.78" length="62.79" shape="266.53,267.91 238.21,215.91 236.51,212.77"/>
    </edge>
    <edge id="-196116971#2" from="3579432161" to="6916346847" priority="11" type="highway.secondary">
        <lane id="-196116971#2_0" index="0" disallow="tram rail_urban rail rail_electric rail_fast ship" speed="27.78" length="6.14" shape="269.59,273.57 266.67,268.17"/>
    </edge>
    <edge id="-196117064#0" from="7004347452" to="1504153626" priority="3" type="highway.residential">
        <lane id="-196117064#0_0" index="0" disallow="tram rail_urban rail rail_electric rail_fast ship" speed="13.89" length="3.00" shape="221.30,202.76 223.93,201.33"/>
    </edge>
    <edge id="-196117064#1" from="2340960702" to="7004347452" priority="3" type="highway.residential" shape="30.85,306.54 136.13,249.79 219.80,205.40">
        <lane id="-196117064#1_0" index="0" disallow="tram rail_urban rail rail_electric rail_fast ship" speed="13.89" length="211.72" shape="30.09,305.13 135.38,248.38 216.74,205.21"/>
    </edge>
    <edge id="-327917960#0" from="7004347453" to="8379847773" priority="11" type="highway.secondary" shape="198.54,140.09 194.74,133.46 190.66,125.92 160.56,70.30 156.90,63.31 154.04,58.00 125.32,4.25 123.05,0.00">
        <lane id="-327917960#0_0" index="0" disallow="tram rail_urban rail rail_electric rail_fast ship" speed="27.78" length="156.64" shape="195.89,138.68 193.34,134.24 189.25,126.68 159.15,71.05 155.49,64.06 152.63,58.76 123.91,5.00 121.64,0.75"/>
    </edge>
    <edge id="-327917960#1" from="7004347451" to="7004347453" priority="11" type="highway.secondary">
        <lane id="-327917960#1_0" index="0" disallow="tram rail_urban rail rail_electric rail_fast ship" speed="27.78" length="49.45" shape="222.11,186.43 198.35,143.07"/>
    </edge>
    <edge id="-327917960#2" from="1504153626" to="7004347451" priority="11" type="highway.secondary">
        <lane id="-327917960#2_0" index="0" disallow="tram rail_urban rail rail_electric rail_fast ship" speed="27.78" length="3.25" shape="226.14,193.74 224.57,190.89"/>
    </edge>
    <edge id="-738973807" from="6919167808" to="6919167828" priority="1" type="highway.service">
        <lane id="-738973807_0" index="0" allow="pedestrian delivery bicycle" speed="5.56" length="18.95" shape="164.04,147.86 180.74,138.90"/>
    </edge>
    <edge id="-738973808" from="6919167819" to="6919167808" priority="1" type="highway.service" shape="143.27,132.81 153.10,150.57 162.35,150.06 164.51,149.42">
        <lane id="-738973808_0" index="0" allow="pedestrian delivery bicycle" speed="5.56" length="29.11" shape="144.67,132.04 154.01,148.92 162.07,148.47 163.74,147.98"/>
    </edge>
    <edge id="-767729564#0" from="7004347450" to="7168010780" priority="3" type="highway.residential">
        <lane id="-767729564#0_0" index="0" disallow="tram rail_urban rail rail_electric rail_fast ship" speed="13.89" length="25.57" shape="243.36,190.77 265.82,178.55"/>
    </edge>
    <edge id="-767729564#1" from="1504153626" to="7004347450" priority="3" type="highway.residential">
        <lane id="-767729564#1_0" index="0" disallow="tram rail_urban rail rail_electric rail_fast ship" speed="13.89" length="2.65" shape="236.59,194.45 238.92,193.18"/>
    </edge>
    <edge id="1033099756" from="6887003344" to="9518259681" priority="1" type="highway.footway" spreadType="center" shape="9.09,332.42 11.77,331.05 225.56,215.60">
        <lane id="1033099756_0" index="0" allow="pedestrian" speed="2.78" length="243.47" width="2.00" shape="9.09,332.42 11.77,331.05 223.35,216.79"/>
    </edge>
    <edge id="1033101551" from="9518268731" to="8376008903" priority="1" type="highway.footway" spreadType="center" shape="0.00,309.54 25.51,295.62 107.17,251.46 156.60,225.21 213.47,194.12">
        <lane id="1033101551_0" index="0" allow="pedestrian" speed="2.78" length="240.17" width="2.00" shape="0.00,309.54 25.51,295.62 107.17,251.46 156.60,225.21 211.27,195.32"/>
    </edge>
    <edge id="165893413" from="3579432160" to="7168010780" priority="3" type="highway.residential" shape="366.34,125.56 357.80,130.34 270.10,178.04">
        <lane id="165893413_0" index="0" disallow="tram rail_urban rail rail_electric rail_fast ship" speed="13.89" length="105.64" shape="367.12,126.96 358.57,131.74 274.38,177.53"/>
    </edge>
    <edge id="196116971#0" from="1504153626" to="6916346823" priority="11" type="highway.secondary" shape="231.04,199.28 233.29,203.45 236.73,209.81">
        <lane id="196116971#0_0" index="0" disallow="tram rail_urban rail rail_electric rail_fast ship" speed="27.78" length="0.20" shape="237.11,207.14 237.20,207.32"/>
    </edge>
    <edge id="196116971#1" from="6916346823" to="6916346847" priority="11" type="highway.secondary" shape="236.73,209.81 239.62,215.15 268.01,267.28">
        <lane id="196116971#1_0" index="0" disallow="tram rail_urban rail rail_electric rail_fast ship" speed="27.78" length="62.78" shape="239.32,211.24 241.03,214.39 269.34,266.38"/>