<?xml version="1.0" encoding="UTF-8"?>

<!-- generated on 2022-12-30 09:20:04 by Eclipse SUMO netedit Version v1_14_1+1789-6cfa3a18e2c
-->

<routes xmlns:xsi="http://www.w3.org/2001/XMLSchema-instance" xsi:noNamespaceSchemaLocation="http://sumo.dlr.de/xsd/routes_file.xsd">
    <!-- Vehicles, persons and containers (sorted by depart) -->
    <personFlow id="pf_0" begin="0.00" end="3600.00" probability="0.50">
        <personTrip from="784001415#0" to="784001415#1" lines="ANY"/>
    </personFlow>
</routes>
